*Heading
** Job name: Block1-MyUmat-Neo Model name: Block1
** Generated by: Abaqus/CAE 2020
**
** Nodes--------------------------------------------------------------
*Node, NSET=AllNodes
1,0.1,0.1,0
2,0.15,0.1,0
3,0.2,0.1,0
4,0.25,0.1,0
5,0.3,0.1,0
6,0.35,0.1,0
7,0.4,0.1,0
8,0.45,0.1,0
9,0.5,0.1,0
10,0.55,0.1,0
11,0.6,0.1,0
12,0.65,0.1,0
13,0.7,0.1,0
14,0.75,0.1,0
15,0.8,0.1,0
16,0.85,0.1,0
17,0.9,0.1,0
18,0.95,0.1,0
19,1,0.1,0
20,1.05,0.1,0
** ... 11582 like lines cut
** Elements-----------------------------------------------------------
*Element, type=B31H, Elset=AllElements
1,1,842
2,842,843
3,843,844
4,844,845
5,845,2
6,2,846
7,846,847
8,847,848
9,848,849
10,849,3
11,3,850
12,850,851
13,851,852
14,852,853
15,853,4
16,4,854
17,854,855
18,855,856
19,856,857
20,857,5
** ... 15621 like lines cut
** Sets --------------------------------------------------------------
** 
*Elset, elset=Bot, generate
1,7400,1
*Elset, elset=Top, generate
7401,14800,1
*Elset, elset=EleZ, generate
14801,15641,1
*Nset, nset=BotMid
221
*Nset, nset=BotRight
231
*Nset, nset=TopMid
6022
** Section -----------------------------------------------------------
** 
*Beam Section, elset=Bot, material=LinearElastic, poisson = 0.49, temperature=GRADIENTS, section=CIRC
0.01
0.,0.,-1.
** 
*Beam Section, elset=Top, material=LinearElastic, poisson = 0.49, temperature=GRADIENTS, section=CIRC
0.01
0.,0.,-1.
** 
*Beam Section, elset=EleZ, material=LinearElastic, poisson = 0.49, temperature=GRADIENTS, section=CIRC
0.01
1.,0.,0.
** MATERIALS ---------------------------------------------------------
*Material, name=LinearElastic
*Depvar
      9,
*Expansion, type=ISO, user
*Hyperelastic, neo hooke
167785., 1.2e-07
** C10=EMOD/(FOUR*(ONE+ENU))
** D1=SIX*(ONE-TWO*ENU)/EMOD
** E=1000000, Nu=0.49
** BOUNDARY CONDITIONS -----------------------------------------------
** 
** Name: BC-2 Type: Displacement/Rotation
*Boundary
TopMid, 1, 1
TopMid, 2, 2
** Name: BC-3 Type: Displacement/Rotation
*Boundary
BotRight, 2, 2
** Name: BC1 Type: Displacement/Rotation
*Boundary
BotMid, 1,  3
** STEP: Growth ------------------------------------------------------
** 
*INITIAL CONDITIONS,TYPE=SOLUTION,USER
*Step, name=Growth, nlgeom=YES
*Static
** *Static, stabilize, factor=0.0002, allsdtol=0.05, continue=NO
0.05, 1., 1e-08, 0.05
** *Static, Direct
** 0.05, 1.
** CONTROLS ----------------------------------------------------------
** 
*Controls, reset
*Controls, parameters=field, field=displacement
1e-08, 1e-08, , 1., 1e-08, 1e-08, 1e-08, 
, 1e-08, 
*Controls, parameters=field, field=hydrostatic fluid pressure
1e-08, 1e-08, , 1., 1e-08, 1e-08, 1e-08, 
, 1e-08
*Controls, parameters=field, field=rotation
1e-08, 1e-08, , 1., 1e-08, 1e-08, 1e-08, 
, 1e-08
*Controls, parameters=field, field=electrical potential
1e-08, 1e-08, , 1., 1e-08, 1e-08, 1e-08, 
, 1e-08
** PREDEFINED FIELDS -------------------------------------------------
** 
*Temperature
AllNodes, 1.0
** OUTPUT REQUESTS ---------------------------------------------------
*Restart, write, frequency=0
*Output, field
*Node Output, NSET=AllNodes
 U, COORD, RM, TM
*Element Output, elset=AllElements
 S, SDV
*End Step
