*Heading
** Job name: Block1-MyUmat-Neo Model name: Block1
** Generated by: Abaqus/CAE 2020
**
** Nodes--------------------------------------------------------------
*Node, NSET=AllNodes
1,68.1946,103.997,0.
2,9.56066,-4.54803,0.
3,9.90676,102.065,0.
4,63.9745,107.378,0.
5,68.0454,105.962,0.
6,112.768,69.0976,0.
7,75.9243,104.292,0.
8,36.0174,30.0683,0.
9,-21.7724,69.5719,0.
10,-21.7642,26.775,0.
11,-24.7304,27.8068,0.
12,-37.9153,40.1206,0.
13,105.943,34.2727,0.
14,51.9684,42.9513,0.
15,111.926,29.5011,0.
16,75.6634,-9.49333,0.
17,65.0314,39.2202,0.
18,32.2225,20.3239,0.
19,12.6031,29.6466,0.
20,-23.6098,18.018,0.
** ... 2046 like lines cut
** Elements-----------------------------------------------------------
*Element, type=B31H, Elset=AllElements
1,274,391
2,181,276
3,128,285
4,369,373
5,67,350
6,143,806
7,342,505
8,144,309
9,445,530
10,249,300
11,103,311
12,158,614
13,87,475
14,18,160
15,473,623
16,241,455
17,66,186
18,181,299
19,67,260
20,185,429
** ... 6701 like lines cut
** Sets --------------------------------------------------------------
** 
*Elset, elset=BOT, generate
1,2844,1
*Elset, elset=TOP, generate
2845,5688,1
*Elset, elset=EleZ, generate
5689,6721,1
*Nset, nset=BotMid
305
*Nset, nset=BotRight
540
*Nset, nset=TopMid
1338
** Section -----------------------------------------------------------
** 
*Beam Section, elset=BOT, material=LinearElastic, poisson = 0.49, temperature=GRADIENTS, section=CIRC
0.5
0.,0.,-1.
** 
*Beam Section, elset=TOP, material=LinearElastic, poisson = 0.49, temperature=GRADIENTS, section=CIRC
0.5
0.,0.,-1.
** 
*Beam Section, elset=ELEZ, material=LinearElastic, poisson = 0.49, temperature=GRADIENTS, section=CIRC
0.5
1.,0.,0.
** MATERIALS ---------------------------------------------------------
*Material, name=LinearElastic
*Depvar
      9,
*Expansion, type=ISO, user
*Hyperelastic, neo hooke
167785., 1.2e-07
** C10=EMOD/(FOUR*(ONE+ENU))
** D1=SIX*(ONE-TWO*ENU)/EMOD
** E=1000000, Nu=0.49
** BOUNDARY CONDITIONS -----------------------------------------------
** 
** Name: BC-2 Type: Displacement/Rotation
*Boundary
TopMid, 1, 1
TopMid, 2, 2
** Name: BC-3 Type: Displacement/Rotation
*Boundary
BotRight, 1, 1
** Name: BC1 Type: Displacement/Rotation
*Boundary
BotMid, 1, 1
BotMid, 2, 2
BotMid, 3, 3
** STEP: Growth ------------------------------------------------------
** 
*INITIAL CONDITIONS,TYPE=SOLUTION,USER
*Step, name=Growth, nlgeom=YES, inc=2000
** *Static
*Static, stabilize, factor=0.0005, allsdtol=0.05, continue=NO
0.0005, 1., 1e-08, 0.05
** *Static, Direct
** 0.005, 1.
** CONTROLS ----------------------------------------------------------
** 
** *Controls, reset
** *Controls, parameters=field, field=displacement
** 1e-08, 1e-08, , 1., 1e-08, 1e-08, 1e-08, 
** , 1e-08, 
** *Controls, parameters=field, field=hydrostatic fluid pressure
** 1e-08, 1e-08, , 1., 1e-08, 1e-08, 1e-08, 
** , 1e-08
** *Controls, parameters=field, field=rotation
** 1e-08, 1e-08, , 1., 1e-08, 1e-08, 1e-08, 
** , 1e-08
** *Controls, parameters=field, field=electrical potential
** 1e-08, 1e-08, , 1., 1e-08, 1e-08, 1e-08, 
** , 1e-08
** PREDEFINED FIELDS -------------------------------------------------
** 
*Temperature
AllNodes, 1.0
** OUTPUT REQUESTS ---------------------------------------------------
*Restart, write, frequency=0
*Output, field
*Node Output, NSET=AllNodes
 U, COORD, RM, TM
*Element Output, elset=AllElements
 S, SDV
*End Step
