*Heading
** Job name: Block1-MyUmat-Neo Model name: Block1
** Generated by: Abaqus/CAE 2020
**
** Nodes--------------------------------------------------------------
*Node, NSET=AllNodes
1,0,0,0
2,0.05,0,0
3,0.1,0,0
4,0.15,0,0
5,0.2,0,0
6,0.25,0,0
7,0.3,0,0
8,0.35,0,0
9,0.4,0,0
10,0.45,0,0
11,0.5,0,0
12,0.55,0,0
13,0.6,0,0
14,0.65,0,0
15,0.7,0,0
16,0.75,0,0
17,0.8,0,0
18,0.85,0,0
19,0.9,0,0
20,0.95,0,0
** ... 7582 like lines cut
** Elements-----------------------------------------------------------
*Element, type=B31H, Elset=AllElements
1,1,442
2,442,443
3,443,444
4,444,445
5,445,2
6,2,446
7,446,447
8,447,448
9,448,449
10,449,3
11,3,450
12,450,451
13,451,452
14,452,453
15,453,4
16,4,454
17,454,455
18,455,456
19,456,457
20,457,5
** ... 8821 like lines cut
** Sets --------------------------------------------------------------
** 
*Elset, elset=BotEleX, generate
1,2100,1
*Elset, elset=BotEleY, generate
2101,4200,1
*Elset, elset=TopEleX, generate
4201,6300,1
*Elset, elset=TopEleY, generate
6301,8400,1
*Elset, elset=EleZ, generate
8401,8841,1
*Nset, nset=BotMid
221
*Nset, nset=BotRight
231
*Nset, nset=TopMid
4022
** Section -----------------------------------------------------------
** 
*Beam Section, elset=BOTELEX, material=LinearElastic, poisson = 0.49, temperature=GRADIENTS, section=CIRC
0.001
0.,0.,-1.
** 
*Beam Section, elset=BOTELEY, material=LinearElastic, poisson = 0.49, temperature=GRADIENTS, section=CIRC
0.001
0.,0.,-1.
** 
*Beam Section, elset=TOPELEX, material=LinearElastic, poisson = 0.49, temperature=GRADIENTS, section=CIRC
0.001
0.,0.,-1.
** 
*Beam Section, elset=TOPELEY, material=LinearElastic, poisson = 0.49, temperature=GRADIENTS, section=CIRC
0.001
0.,0.,-1.
** 
*Beam Section, elset=ELEZ, material=LinearElastic, poisson = 0.49, temperature=GRADIENTS, section=CIRC
0.001
1.,0.,0.
** MATERIALS ---------------------------------------------------------
** Plate expansion to 2
** *Material, name=LinearElastic
** *Elastic
** 90.6512, 0.49
** *Material, name=LinearElsExpBotX
** *Elastic
** 906512., 0.49
** *Expansion
** 0.693147,
** *Material, name=LinearElsExpBotY
** *Elastic
** 906512., 0.49
** *Expansion
** 0.693147,
** *Material, name=LinearElsExpTopX
** *Elastic
** 906512., 0.49
** *Expansion
** 0.693147,
** *Material, name=LinearElsExpTopY
** *Elastic
** 906512., 0.49
** *Expansion
** 0.693147,
** Half cylinder thickness 0.1
*Material, name=LinearElastic
*Depvar
      9,
*Expansion, type=ISO, user
*Hyperelastic, neo hooke
167785., 1.2e-07
** C10=EMOD/(FOUR*(ONE+ENU))
** D1=SIX*(ONE-TWO*ENU)/EMOD
** E=1000000, Nu=0.49
** BOUNDARY CONDITIONS -----------------------------------------------
** 
** Name: BC-2 Type: Displacement/Rotation
*Boundary
TopMid, 1, 1
TopMid, 2, 2
** Name: BC-3 Type: Displacement/Rotation
*Boundary
BotRight, 2, 2
** Name: BC1 Type: Displacement/Rotation
*Boundary
BotMid, 1, 1
BotMid, 2, 2
BotMid, 3, 3
** STEP: Growth ------------------------------------------------------
** 
*INITIAL CONDITIONS,TYPE=SOLUTION,USER
*Step, name=Growth, nlgeom=YES
*Static
0.05, 1., 1e-08, 0.05
** *Static, Direct
** 0.05, 1.
** CONTROLS ----------------------------------------------------------
** 
*Controls, reset
*Controls, parameters=field, field=displacement
1e-08, 1e-08, , 1., 1e-08, 1e-08, 1e-08, 
, 1e-08, 
*Controls, parameters=field, field=hydrostatic fluid pressure
1e-08, 1e-08, , 1., 1e-08, 1e-08, 1e-08, 
, 1e-08
*Controls, parameters=field, field=rotation
1e-08, 1e-08, , 1., 1e-08, 1e-08, 1e-08, 
, 1e-08
*Controls, parameters=field, field=electrical potential
1e-08, 1e-08, , 1., 1e-08, 1e-08, 1e-08, 
, 1e-08
** PREDEFINED FIELDS -------------------------------------------------
** 
*Temperature
AllNodes, 1.0
** OUTPUT REQUESTS ---------------------------------------------------
*Restart, write, frequency=0
*Output, field
*Node Output, NSET=AllNodes
 U, COORD, RM, TM
*Element Output, elset=AllElements
 S, SDV
*End Step
